            TELEMACO X - - - - -
                  K7 S - - - - -
                  ER - S - - - -
                 GHZ - O - - - -
                300+ - - S - - -
             MEASURE - - O - - -
                   * - - - O - -
                WELL - - - - S -
                0.76 - - - - O -
                1.76 - - - - X -
                FAST - - - - - O
                 CPU - - - - - S
               YEARS - - - - - X
