                THAT S - - - - -
               THERE - - S S - -
          EQUIVALENT - - O - - -
                TYPE - - - X - -
                  1C - - - X - -
               FONTS - - - X - -
                LIST - - - O - -
          PROPERTIES - - - X - -
                ONES - - - - - X
