            TELEMACO X - - -
                  K7 S - - -
                  ER - S - -
                 GHZ - O - -
                300+ - - - S
             MEASURE - - - O
