                 MWE X - - - - - - -
                  .. X - - - X - - -
         RECONFIGURE X - - - - - - -
             XSERVER X - - - - - - -
               THING O - - - - - - -
             DISPLAY X - - - - - - -
             PROBLEM X - - - - - - -
            PROBLEMS O - - - - - - -
               MOUSE - X - X - - - -
            KEYBOARD - X - - - - - -
                 WAY - X - - - - - -
           XORG.CONF - - S - - - - -
                BERG - - X - S - - -
                   > - - X - - - - -
              SCREEN - - - X - - - -
             DESKTOP - - - X - - - -
                 ADN - - - X - - - -
                 USE - - - X - - - -
                TYPE - - - - X - - -
                  CD - - - - X - - -
            /ETC/X11 - - - - O - - -
          TELEMACHUS - - - - - X - -
              PEOPLE - - - - - S - -
                 LOL - - - - - X - -
               STUFF - - - - - - O -
          PULSEAUDIO - - - - - - X -
              DRIVER - - - - - - - X
                   * - - - - - - - O
                CASE - - - - - - - X
