              UPDATE S - - X - - -
        DIST-UPGRADE S - - - - - -
             PACKAGE S - X - - - -
             UPGRADE O - - - - - -
           EVOLUTION X - - - - - -
    EVOLUTION-COMMON X - - - - - -
   EVOLUTION-PLUGINS X - - - - - -
             OPENSSL X - - - - - -
                VINO X - - - - - -
              REBOOT - X X O - - -
                 ONE - - X - - - -
                IMHO - - - X - - -
                NONE - - - S - - -
                 BET - - - O - - -
                   P - - - S - - -
                 ANY - - - O - - -
              OTHERS - - - X - - -
            ANYTHING - - - S - - -
              KERNEL - - - X - - -
               UTILS - - - X - - -
                 ETC - - - X - - -
                THIS - - - - S - -
               THATS - - - - - X -
           CYLINDERS - - - - - S X
            CYLINDER - - - - - X -
                  1C - - - - - X -
              ACCORD - - - - - S -
                 BIN - - - - - S -
                 OWN - - - - - X -
                  .. - - - - - X -
               TRUST - - - - - X -
             UTILITY - - - - - X -
                DISK - - - - - X -
                SOME - - - - - - X
               BLOCK - - - - - - X
               FDISK - - - - - - O
               PRINT - - - - - - X
